'''
tau.py
handling tau values for GEOS-Chem

MODIFICATION HISTORY:
    dsj, 18, MAY, 2015: VERSION 1.00
'''

